[TITLE]
;;Project Title/Notes
HUZU East Rain Network Template

[OPTIONS]
;;Option             Value
FLOW_UNITS           CMS
INFILTRATION         HORTON
FLOW_ROUTING         DYNWAVE
LINK_OFFSETS         DEPTH
MIN_SLOPE            0
ALLOW_PONDING        NO
SKIP_STEADY_STATE    NO

START_DATE           01/01/2026
START_TIME           00:00:00
REPORT_START_DATE    01/01/2026
REPORT_START_TIME    00:00:00
END_DATE             01/02/2026
END_TIME             00:00:00
SWEEP_START          1/1
SWEEP_END            12/31
DRY_DAYS             0
REPORT_STEP          00:05:00
WET_STEP             00:01:00
DRY_STEP             00:30:00
ROUTING_STEP         00:00:10 
RULE_STEP            00:00:00

INERTIAL_DAMPING     PARTIAL
NORMAL_FLOW_LIMITED  BOTH
FORCE_MAIN_EQUATION  H-W
VARIABLE_STEP        0.75
LENGTHENING_STEP     0
MIN_SURFAREA         0
MAX_TRIALS           8
HEAD_TOLERANCE       0.0015
SYS_FLOW_TOL         5
LAT_FLOW_TOL         5
MINIMUM_STEP         0.5
THREADS              2

[EVAPORATION]
;;Data Source    Parameters
;;-------------- ----------------
CONSTANT         0
DRY_ONLY         NO

[RAINGAGES]
;;Name           Format    Interval SCF      Source    
;;-------------- --------- ------ ------ ----------
RAINGAGE         INTENSITY 00:05    1.0      TIMESERIES TS1     

[SUBCATCHMENTS]
;;Name           Rain Gage        Outlet           Area     %Imperv  Width    %Slope   CurbLen  SnowPack        
;;-------------- ---------------- ---------------- -------- -------- -------- -------- -------- ----------------
SU_001           RAINGAGE         SN_005           0.026    95       16.125   0.5      0                        
SU_008           RAINGAGE         SN_001           0.014    10       11.832   0.5      0                        
SU_009           RAINGAGE         SN_006           0.06     95       24.495   0.5      0                        
SU_010           RAINGAGE         SN_007           0.063    1        25.100   0.5      0                        
SU_011           RAINGAGE         SN_008           0.077    1        27.749   0.5      0                        
SU_012           RAINGAGE         SN_009           0.051    1        22.583   0.5      0                        
SU_013           RAINGAGE         SN_017           0.021    95       14.491   0.5      0                        
SU_014           RAINGAGE         SN_017           0.091    95       30.166   0.5      0                        
SU_015           RAINGAGE         SN_020           0.011    5        10.488   0.5      0                        
SU_016           RAINGAGE         SN_020           0.033    95       18.166   0.5      0                        
SU_017           RAINGAGE         SN_012           0.019    50       13.784   0.5      0                        
SU_018           RAINGAGE         SN_014           0.007    95       8.367    0.5      0                        
SU_019           RAINGAGE         SN_013           0.011    95       10.488   0.5      0                        
SU_020           RAINGAGE         SN_014           0.012    5        10.954   0.5      0                        
SU_021           RAINGAGE         SN_015           0.016    5        12.649   0.5      0                        
SU_022           RAINGAGE         SN_016           0.009    5        9.487    0.5      0                        
SU_023           RAINGAGE         SN_017           0.013    5        11.402   0.5      0                        
SU_024           RAINGAGE         SN_021           0.026    95       16.125   0.5      0                        
SU_025           RAINGAGE         SN_014           0.01     95       10.000   0.5      0                        
SU_026           RAINGAGE         SN_013           0.005    5        7.071    0.5      0                        
SU_027           RAINGAGE         SN_013           0.008    10       8.944    0.5      0                        
SU_028           RAINGAGE         SN_026           0.012    5        10.954   0.5      0                        
SU_029           RAINGAGE         SN_026           0.049    95       22.136   0.5      0                        
SU_030           RAINGAGE         SN_001           0.038    1        19.494   0.5      0                        
SU_031           RAINGAGE         SN_015           0.031    55       17.607   0.5      0                        
SU_032           RAINGAGE         SN_016           0.018    40       13.416   0.5      0                        
SU_033           RAINGAGE         SN_017           0.006    95       7.746    0.5      0                        
SU_034           RAINGAGE         SN_022           0.016    10       12.649   0.5      0                        
SU_035           RAINGAGE         SN_027           0.016    5        12.649   0.5      0                        
SU_036           RAINGAGE         SN_028           0.026    5        16.125   0.5      0                        
SU_037           RAINGAGE         SN_027           0.031    95       17.607   0.5      0                        
SU_038           RAINGAGE         SN_028           0.051    95       22.583   0.5      0                        
SU_039           RAINGAGE         SN_021           0.018    30       13.416   0.5      0                        
SU_040           RAINGAGE         SN_020           0.028    95       16.733   20       0                        
SU_041           RAINGAGE         SN_019           0.018    5        13.416   0.5      0                        
SU_042           RAINGAGE         SN_018           0.026    35       16.125   0.5      0                        
SU_046           RAINGAGE         SN_029           0.005    95       7.071    0.5      0                        
SU_047           RAINGAGE         SN_029           0.009    20       9.487    0.5      0                        
SU_048           RAINGAGE         SN_030           0.016    95       12.649   0.5      0                        
SU_049           RAINGAGE         SN_031           0.021    95       14.491   0.5      0                        
SU_050           RAINGAGE         SN_045           0.011    60       10.488   0.5      0                        
SU_051           RAINGAGE         SN_032           0.016    65       12.649   0.5      0                        
SU_052           RAINGAGE         SN_033           0.038    95       19.494   0.5      0                        
SU_053           RAINGAGE         SN_033           0.017    5        13.038   0.5      0                        
SU_054           RAINGAGE         SN_046           0.034    1        18.439   0.5      0                        
SU_055           RAINGAGE         SN_047           0.021    1        14.491   0.5      0                        
SU_056           RAINGAGE         SN_048           0.016    1        12.649   0.5      0                        
SU_057           RAINGAGE         SN_049           0.023    1        15.166   0.5      0                        
SU_058           RAINGAGE         SN_049           0.12     1        34.641   0.5      0                        
SU_059           RAINGAGE         SN_034           0.031    10       17.607   0.5      0                        
SU_060           RAINGAGE         SN_035           0.026    10       16.125   0.5      0                        
SU_061           RAINGAGE         SN_035           0.019    1        13.784   0.5      0                        
SU_062           RAINGAGE         SN_036           0.015    1        12.247   0.5      0                        
SU_063           RAINGAGE         SN_036           0.03     10       17.321   0.5      0                        
SU_064           RAINGAGE         SN_037           0.031    10       17.607   0.5      0                        
SU_065           RAINGAGE         SN_039           0.006    5        7.746    0.5      0                        
SU_066           RAINGAGE         SN_039           0.007    95       8.367    0.5      0                        
SU_067           RAINGAGE         SN_040           0.04     1        20.000   0.5      0                        
SU_068           RAINGAGE         SN_041           0.018    1        13.416   0.5      0                        
SU_069           RAINGAGE         SN_042           0.016    1        12.649   0.5      0                        
SU_070           RAINGAGE         SN_042           0.006    5        7.746    0.5      0                        
SU_071           RAINGAGE         SN_044           0.005    85       7.071    0.5      0                        
SU_072           RAINGAGE         SN_041           0.013    40       11.402   0.5      0                        
SU_073           RAINGAGE         SN_040           0.022    95       14.832   0.5      0                        
SU_074           RAINGAGE         SN_038           0.014    5        11.832   0.5      0                        
SU_075           RAINGAGE         SN_038           0.011    95       10.488   0.5      0                        
SU_004           RAINGAGE         SN_003           0.053    90       23.022   0.5      0                        
SU_002           RAINGAGE         SN_004           0.051    95       22.583   0.5      0                        
SU_006           RAINGAGE         SN_002           0.025    20       15.811   0.5      0                        
SU_043           RAINGAGE         SN_025           0.01     70       10.000   0.5      0                        
SU_003           RAINGAGE         SN_029           0.006    95       7.746    0.5      0                        
SU_044           RAINGAGE         SN_024           0.006    15       7.746    0.5      0                        
SU_45            RAINGAGE         SN_023           0.013    30       11.402   0.5      0                        
SU_005           RAINGAGE         SN_023           0.011    90       10.488   20       0                        

[SUBAREAS]
;;Subcatchment   N-Imperv   N-Perv     S-Imperv   S-Perv     PctZero    RouteTo    PctRouted 
;;-------------- ---------- ---------- ---------- ---------- ---------- ---------- ----------
SU_001           0.012      0.4        14         7.5        25         OUTLET    
SU_008           0.012      0.4        14         7.5        25         OUTLET    
SU_009           0.012      0.4        14         7.5        25         OUTLET    
SU_010           0.012      0.4        300        300        25         OUTLET    
SU_011           0.012      0.4        300        300        25         OUTLET    
SU_012           0.012      0.4        300        300        25         OUTLET    
SU_013           0.012      0.4        2.5        7.5        25         OUTLET    
SU_014           0.012      0.4        2.5        7.5        25         OUTLET    
SU_015           0.012      0.4        2.5        7.5        25         OUTLET    
SU_016           0.012      0.4        2.5        7.5        25         OUTLET    
SU_017           0.012      0.4        2.5        7.5        25         OUTLET    
SU_018           0.012      0.4        2.5        7.5        25         OUTLET    
SU_019           0.012      0.4        2.5        7.5        25         OUTLET    
SU_020           0.012      0.4        2.5        7.5        25         OUTLET    
SU_021           0.012      0.4        2.5        7.5        25         OUTLET    
SU_022           0.012      0.4        2.5        7.5        25         OUTLET    
SU_023           0.012      0.4        2.5        3          25         OUTLET    
SU_024           0.012      0.4        2.5        3          25         OUTLET    
SU_025           0.012      0.4        2.5        7.5        25         OUTLET    
SU_026           0.012      0.4        2.5        7.5        25         OUTLET    
SU_027           0.012      0.4        2.5        7.5        25         OUTLET    
SU_028           0.012      0.4        2.5        7.5        25         OUTLET    
SU_029           0.012      0.4        2.5        7.5        25         OUTLET    
SU_030           0.012      0.4        300        300        25         OUTLET    
SU_031           0.012      0.4        2.5        7.5        25         OUTLET    
SU_032           0.012      0.4        2.5        7.5        25         OUTLET    
SU_033           0.012      0.4        2.5        7.5        25         OUTLET    
SU_034           0.012      0.4        2.5        3          25         OUTLET    
SU_035           0.012      0.4        2.5        7.5        25         OUTLET    
SU_036           0.012      0.4        2.5        7.5        25         OUTLET    
SU_037           0.012      0.4        2.5        7.5        25         OUTLET    
SU_038           0.012      0.4        2.5        7.5        25         OUTLET    
SU_039           0.012      0.4        2.5        3          25         OUTLET    
SU_040           0.012      0.4        2.5        3          25         OUTLET    
SU_041           0.012      0.4        2.5        3          25         OUTLET    
SU_042           0.012      0.4        2.5        3          25         OUTLET    
SU_046           0.012      0.4        2.5        7.5        25         OUTLET    
SU_047           0.012      0.4        2.5        7.5        25         OUTLET    
SU_048           0.012      0.4        2.5        7.5        25         OUTLET    
SU_049           0.012      0.4        2.5        7.5        25         OUTLET    
SU_050           0.012      0.4        2.5        7.5        25         OUTLET    
SU_051           0.012      0.4        2.5        7.5        25         OUTLET    
SU_052           0.012      0.4        2.5        7.5        25         OUTLET    
SU_053           0.012      0.4        2.5        75         25         OUTLET    
SU_054           0.012      0.4        300        300        25         OUTLET    
SU_055           0.012      0.4        300        300        25         OUTLET    
SU_056           0.012      0.4        300        300        25         OUTLET    
SU_057           0.012      0.4        300        300        25         OUTLET    
SU_058           0.012      0.4        300        300        25         OUTLET    
SU_059           0.012      0.4        2.5        75         25         OUTLET    
SU_060           0.012      0.4        2.5        75         25         OUTLET    
SU_061           0.012      0.4        300        300        25         OUTLET    
SU_062           0.012      0.4        300        300        25         OUTLET    
SU_063           0.012      0.4        2.5        75         25         OUTLET    
SU_064           0.012      0.4        2.5        75         25         OUTLET    
SU_065           0.012      0.4        2.5        7.5        25         OUTLET    
SU_066           0.012      0.4        2.5        7.5        25         OUTLET    
SU_067           0.012      0.4        300        300        25         OUTLET    
SU_068           0.012      0.4        300        300        25         OUTLET    
SU_069           0.012      0.4        300        300        25         OUTLET    
SU_070           0.012      0.4        2.5        7.5        25         OUTLET    
SU_071           0.012      0.4        2.5        7.5        25         OUTLET    
SU_072           0.012      0.4        2.5        7.5        25         OUTLET    
SU_073           0.012      0.4        2.5        7.5        25         OUTLET    
SU_074           0.012      0.4        2.5        7.5        25         OUTLET    
SU_075           0.012      0.4        2.5        7.5        25         OUTLET    
SU_004           0.012      0.4        14         7.5        25         OUTLET    
SU_002           0.012      0.4        14         7.5        25         OUTLET    
SU_006           0.012      0.4        14         75         25         OUTLET    
SU_043           0.012      0.4        2.5        7.5        25         OUTLET    
SU_003           0.012      0.4        2.5        3          25         OUTLET    
SU_044           0.012      0.4        2.5        3          25         OUTLET    
SU_45            0.012      0.4        2.5        3          25         OUTLET    
SU_005           0.012      0.4        2.5        3          25         OUTLET    

[INFILTRATION]
;;Subcatchment   Param1     Param2     Param3     Param4     Param5    
;;-------------- ---------- ---------- ---------- ---------- ----------
SU_001           55         5          4          7          0         
SU_008           55         5          4          7          0         
SU_009           55         5          4          7          0         
SU_010           55         5          4          7          0         
SU_011           55         5          4          7          0         
SU_012           55         5          4          7          0         
SU_013           55         5          4          7          0         
SU_014           55         5          4          7          0         
SU_015           55         5          4          7          0         
SU_016           55         5          4          7          0         
SU_017           55         5          4          7          0         
SU_018           55         5          4          7          0         
SU_019           55         5          4          7          0         
SU_020           55         5          4          7          0         
SU_021           55         5          4          7          0         
SU_022           55         5          4          7          0         
SU_023           55         5          4          7          0         
SU_024           55         5          4          7          0         
SU_025           55         5          4          7          0         
SU_026           55         5          4          7          0         
SU_027           55         5          4          7          0         
SU_028           55         5          4          7          0         
SU_029           55         5          4          7          0         
SU_030           55         5          4          7          0         
SU_031           55         5          4          7          0         
SU_032           55         5          4          7          0         
SU_033           55         5          4          7          0         
SU_034           55         5          4          7          0         
SU_035           55         5          4          7          0         
SU_036           55         5          4          7          0         
SU_037           55         5          4          7          0         
SU_038           55         5          4          7          0         
SU_039           55         5          4          7          0         
SU_040           55         5          4          7          0         
SU_041           55         5          4          7          0         
SU_042           55         5          4          7          0         
SU_046           55         5          4          7          0         
SU_047           55         5          4          7          0         
SU_048           55         5          4          7          0         
SU_049           55         5          4          7          0         
SU_050           55         5          4          7          0         
SU_051           55         5          4          7          0         
SU_052           55         5          4          7          0         
SU_053           55         5          4          7          0         
SU_054           55         5          4          7          0         
SU_055           55         5          4          7          0         
SU_056           55         5          4          7          0         
SU_057           55         5          4          7          0         
SU_058           55         5          4          7          0         
SU_059           55         5          4          7          0         
SU_060           55         5          4          7          0         
SU_061           55         5          4          7          0         
SU_062           55         5          4          7          0         
SU_063           55         5          4          7          0         
SU_064           55         5          4          7          0         
SU_065           55         5          4          7          0         
SU_066           55         5          4          7          0         
SU_067           55         5          4          7          0         
SU_068           55         5          4          7          0         
SU_069           55         5          4          7          0         
SU_070           55         5          4          7          0         
SU_071           55         5          4          7          0         
SU_072           55         5          4          7          0         
SU_073           55         5          4          7          0         
SU_074           55         5          4          7          0         
SU_075           55         5          4          7          0         
SU_004           55         5          4          7          0         
SU_002           55         5          4          7          0         
SU_006           55         5          4          7          0         
SU_043           55         5          4          7          0         
SU_003           55         5          4          7          0         
SU_044           55         5          4          7          0         
SU_45            55         5          4          7          0         
SU_005           55         5          4          7          0         

[JUNCTIONS]
;;Name           Elevation  MaxDepth   InitDepth  SurDepth   Aponded   
;;-------------- ---------- ---------- ---------- ---------- ----------
SN_039           2.18       1.42       0          0          100       
SN_038           2.15       1.45       0          0          100       
SN_037           2.17       1.43       0          0          100       
SN_036           2.17       1.43       0          0          100       
SN_035           2.18       1.42       0          0          100       
SN_034           2.14       1.46       0          0          100       
SN_033           2.1        1.5        0          0          100       
SN_040           2.2        1.3        0          0          100       
SN_041           2.24       1.26       0          0          100       
SN_044           3.18       0.32       0          0          100       
SN_043           3.08       0.42       0          0          100       
SN_042           2.4        1.1        0          0          100       
SN_049           2.7        0.8        0          0          100       
SN_048           2.66       0.84       0          0          100       
SN_047           2.64       0.86       0          0          100       
SN_046           2.62       0.88       0          0          100       
SN_032           2.08       1.52       0          0          100       
SN_020           2.6        1          0          0          100       
SN_019           2.44       1.16       0          0          100       
SN_021           2.6        1          0          0          100       
SN_018           2.3        1.3        0          0          100       
SN_025           3.08       0.42       0          0          100       
SN_024           2.9        0.6        0          0          100       
SN_029           1.74       1.86       0          0          100       
SN_030           2.9        0.6        0          0          100       
SN_045           2.6        0.9        0          0          100       
SN_031           3.08       0.42       0          0          100       
SN_011           3.08       0.42       0          0          100       
SN_010           3.08       0.42       0          0          100       
SN_009           2.72       0.78       0          0          100       
SN_008           2.69       0.81       0          0          100       
SN_007           2.6        0.9        0          0          100       
SN_006           2.5        1          0          0          100       
SN_005           2.32       1.18       0          0          100       
SN_004           2.23       1.27       0          0          100       
SN_003           2.1        1.4        0          0          100       
SN_002           2.07       1.53       0          0          100       
SN_017           1.85       1.75       0.09       0          100       
SN_023           2.61       0.89       0          0          100       
SN_022           2.55       0.95       0          0          100       
SN_016           1.75       1.85       0          0          100       
SN_015           1.66       1.94       0          0          100       
SN_014           1.64       1.96       0          0          100       
SN_013           1.61       1.99       0          0          100       
SN_028           1.6        2          0.21       0          100       
SN_027           1.65       1.95       0.16       0          100       
SN_026           1.7        1.9        0.01       0          100       
SN_012           1.58       2.02       0.01       0          100       
SN_001           1.46       2.14       0.13       0          100       

[OUTFALLS]
;;Name           Elevation  Type       Stage Data       Gated    Route To        
;;-------------- ---------- ---------- ---------------- -------- ----------------
SO_002           1.6        FREE                        NO                       

[CONDUITS]
;;Name           From Node        To Node          Length     Roughness  InOffset   OutOffset  InitFlow   MaxFlow   
;;-------------- ---------------- ---------------- ---------- ---------- ---------- ---------- ---------- ----------
SL_011           SN_011           SN_010           2.63       0.01       0          0          0          0         
SL_010           SN_010           SN_009           7.4        0.01       0          0          0          0         
SL_009           SN_009           SN_008           15.88      0.01       0          0          0          0         
SL_008           SN_008           SN_007           21.98      0.01       0          0          0          0         
SL_007           SN_007           SN_006           8.73       0.01       0          0          0          0         
SL_006           SN_006           SN_005           18.18      0.01       0          0          0          0         
SL_005           SN_005           SN_004           10.61      0.01       0          0          0          0         
SL_004           SN_004           SN_003           6.52       0.01       0          0          0          0         
SL_003           SN_003           SN_002           19.35      0.01       0          0          0          0         
SL_002           SN_002           SN_001           19.93      0.01       0          0          0          0         
SL_012           SN_012           SN_001           13.97      0.01       0          0          0          0         
SL_020           SN_020           SN_019           14.13      0.01       0          0          0          0         
SL_019           SN_019           SN_018           20.33      0.01       0          0          0          0         
SL_021           SN_021           SN_018           15.99      0.01       0          0          0          0         
SL_018           SN_018           SN_017           18.94      0.01       0          0          0          0         
SL_025           SN_025           SN_024           8.01       0.01       0          0          0          0         
SL_024           SN_024           SN_023           12.91      0.01       0          0          0          0         
SL_023           SN_023           SN_022           10.08      0.01       0          0          0          0         
SL_022           SN_022           SN_017           13.25      0.01       0          0          0          0         
SL_016           SN_016           SN_015           17.66      0.01       0          0          0          0         
SL_017           SN_017           SN_016           9.93       0.01       0.11       0.01       0          0         
SL_015           SN_015           SN_014           29.87      0.01       0          0          0          0         
SL_014           SN_014           SN_013           16.32      0.01       0          0          0          0         
SL_013           SN_013           SN_012           12.31      0.01       0          0          0          0         
SL_044           SN_044           SN_043           6.69       0.01       0          0          0          0         
SL_043           SN_043           SN_042           2.78       0.01       0          0          0          0         
SL_042           SN_042           SN_041           12.85      0.01       0          0          0          0         
SL_041           SN_041           SN_040           15.58      0.01       0          0          0          0         
SL_040           SN_040           SN_038           22.45      0.01       0          0          0          0         
SL_039           SN_039           SN_038           8.61       0.01       0          0          0          0         
SL_038           SN_038           SN_037           13.32      0.01       0          0          0          0         
SL_037           SN_037           SN_036           21.55      0.01       0          0          0          0         
SL_036           SN_036           SN_035           29.81      0.01       0          0          0          0         
SL_034           SN_034           SN_033           14.76      0.01       0          0          0          0         